/*--------------------------------*- C++ -*----------------------------------*\
| =========                 |                                                 |
| \\      /  F ield         | OpenFOAM: The Open Source CFD Toolbox           |
|  \\    /   O peration     | Version:  v1912                                 |
|   \\  /    A nd           | Website:  www.openfoam.com                      |
|    \\/     M anipulation  |                                                 |
\*---------------------------------------------------------------------------*/
FoamFile
{
    version     2.0;
    format      ascii;
    class       dictionary;
    object      blockMeshDict;
}
// * * * * * * * * * * * * * * * * * * * * * * * * * * * * * * * * * * * * * //

scale   0.001;

vertices
(
    (0 0 0)
    (1 -1 0)
    (1 1 0)
    (0 1 0)
    (0 0 1)
    (1 -1 1)
    (1 1 1)
    (0 1 1)
);

blocks
(
    hex (1 5 6 2 0 4 4 0) (10 1 10) simpleGrading (1 1 1)
);

edges
(
);

boundary
(
    top
    {
        type wall;
        faces
        (
            (4 5 6 4)
        );
    }

    bottom
    {
        type wall;
        faces
        (
            (0 2 1 0)
        );
    }

    front
    {
        type empty;
        faces
        (
            (0 4 4 0)
        );
    }

    back
    {
        type wall;
        faces
        (
            (6 5 1 2)
        );
    }

    right
    {
        type wedge;
        faces
        (
            (1 5 4 0)
        );
    }

    left
    {
        type wedge;
        faces
        (
            (4 6 2 0)
        );
    }

);

mergePatchPairs
(
);

// ************************************************************************* //
