/*--------------------------------*- C++ -*----------------------------------*\
| =========                 |                                                 |
| \\      /  F ield         | OpenFOAM: The Open Source CFD Toolbox           |
|  \\    /   O peration     | Version:  2.4.0                                 |
|   \\  /    A nd           | Web:      www.OpenFOAM.org                      |
|    \\/     M anipulation  |                                                 |
\*---------------------------------------------------------------------------*/
FoamFile
{
    version     2.0;
    format      ascii;
    class       dictionary;
    object      blockMeshDict;
}
// * * * * * * * * * * * * * * * * * * * * * * * * * * * * * * * * * * * * * //
convertToMeters 1;

vertices
(
    (0 0 0)
	(.00295442325904790532 -.00052094453293681247 0)
	(.00295442325904790532  .00052094453293681247 0)
	(0  .00052094453293681247   0)
    (0 0 .001)
	(.00295442325904790532 -.00052094453293681247 0.001)
	(.00295442325904790532  .00052094453293681247 0.001)
	(0  .00052094453293681247  .001)
);

blocks
(
    // sideA
    hex (0 1 2 0 4 5 6 4) (10 1 10) simpleGrading (1 1 1)
);

edges
(
);

boundary
(
    bottom
    {
        type patch;
        faces
        (
            (2 1 0 2)
        );
    }
    side
    {
        type patch;
        faces
        (
            (1 2 6 5)
        );
    }
    
    freeSurface
    {
        type patch;
        faces
        (
            (4 5 6 4)
        );
    } 
    
    wedgePos
    {
        type wedge;
        faces
        (
            (0 4 6 2)
        );
    }
    wedgeNeg
    {
        type wedge;
        faces
        (
			(0 1 5 4)
        );
    }
);

// ************************************************************************* //
